notebook_tutorials/synthetic_net_opendss/master_sample_55.dss
clear
new circuit.synthetic_net basekv=157.6864406779661 pu=1.0 phases=3
edit Vsource.source bus1=bus_68.1.2.3

!---------------- LINES ----------------

new linecode.LCode_0 nphases=1 rmatrix=[0.729752] xmatrix=[1.242115] units=km
new line.line_0 bus1=bus_0.3 bus2=bus_1.3 linecode=LCode_0 length=1.0 units=km
new linecode.LCode_1 nphases=1 rmatrix=[0.693836] xmatrix=[1.242115] units=km
new line.line_1 bus1=bus_0.3 bus2=bus_2.3 linecode=LCode_1 length=1.0 units=km
new linecode.LCode_2 nphases=1 rmatrix=[0.463216] xmatrix=[1.393676] units=km
new line.line_2 bus1=bus_3.3 bus2=bus_4.3 linecode=LCode_2 length=1.0 units=km
new linecode.LCode_3 nphases=1 rmatrix=[1.073881] xmatrix=[1.295170] units=km
new line.line_3 bus1=bus_2.3 bus2=bus_4.3 linecode=LCode_3 length=1.0 units=km
new linecode.LCode_4 nphases=1 rmatrix=[0.471271] xmatrix=[1.242115] units=km
new line.line_4 bus1=bus_4.3 bus2=bus_5.3 linecode=LCode_4 length=1.0 units=km
new linecode.LCode_5 nphases=1 rmatrix=[1.020653] xmatrix=[1.258144] units=km
new line.line_5 bus1=bus_5.3 bus2=bus_6.3 linecode=LCode_5 length=1.0 units=km
new linecode.LCode_6 nphases=1 rmatrix=[1.151004] xmatrix=[1.624330] units=km
new line.line_6 bus1=bus_7.3 bus2=bus_8.3 linecode=LCode_6 length=1.0 units=km
new linecode.LCode_7 nphases=1 rmatrix=[0.729595] xmatrix=[1.460652] units=km
new line.line_7 bus1=bus_8.3 bus2=bus_9.3 linecode=LCode_7 length=1.0 units=km
new linecode.LCode_8 nphases=1 rmatrix=[0.293811] xmatrix=[1.242115] units=km
new line.line_8 bus1=bus_3.3 bus2=bus_10.3 linecode=LCode_8 length=1.0 units=km
new linecode.LCode_9 nphases=1 rmatrix=[0.909094] xmatrix=[1.352320] units=km
new line.line_9 bus1=bus_4.3 bus2=bus_10.3 linecode=LCode_9 length=1.0 units=km
new linecode.LCode_10 nphases=1 rmatrix=[0.494059] xmatrix=[1.251374] units=km
new line.line_10 bus1=bus_10.3 bus2=bus_11.3 linecode=LCode_10 length=1.0 units=km
new linecode.LCode_11 nphases=1 rmatrix=[0.919980] xmatrix=[1.666035] units=km
new line.line_11 bus1=bus_1.3 bus2=bus_11.3 linecode=LCode_11 length=1.0 units=km
new linecode.LCode_12 nphases=1 rmatrix=[0.679236] xmatrix=[1.873177] units=km
new line.line_12 bus1=bus_2.3 bus2=bus_11.3 linecode=LCode_12 length=1.0 units=km
new linecode.LCode_13 nphases=1 rmatrix=[1.004058] xmatrix=[1.304587] units=km
new line.line_13 bus1=bus_6.3 bus2=bus_11.3 linecode=LCode_13 length=1.0 units=km
new linecode.LCode_16 nphases=1 rmatrix=[0.875767] xmatrix=[1.322520] units=km
new line.line_16 bus1=bus_12.1 bus2=bus_14.1 linecode=LCode_16 length=1.0 units=km
new linecode.LCode_17 nphases=1 rmatrix=[0.293834] xmatrix=[1.242115] units=km
new line.line_17 bus1=bus_13.1 bus2=bus_14.1 linecode=LCode_17 length=1.0 units=km
new linecode.LCode_18 nphases=1 rmatrix=[0.887028] xmatrix=[1.242115] units=km
new line.line_18 bus1=bus_11.3 bus2=bus_15.3 linecode=LCode_18 length=1.0 units=km
new linecode.LCode_20 nphases=2 rmatrix=[0.899959 | 0.059160 0.899959] xmatrix=[1.242115 | 1.024695 1.242115] units=km
new line.line_20 bus1=bus_15.2.3 bus2=bus_16.2.3 linecode=LCode_20 length=1.0 units=km
new linecode.LCode_21 nphases=2 rmatrix=[0.729576 | 0.059160 0.729576] xmatrix=[1.456427 | 1.024695 1.456427] units=km
new line.line_21 bus1=bus_16.2.3 bus2=bus_17.2.3 linecode=LCode_21 length=1.0 units=km
new linecode.LCode_24 nphases=1 rmatrix=[1.237176] xmatrix=[1.242115] units=km
new line.line_24 bus1=bus_14.1 bus2=bus_18.1 linecode=LCode_24 length=1.0 units=km
new linecode.LCode_25 nphases=1 rmatrix=[0.457391] xmatrix=[1.278143] units=km
new line.line_25 bus1=bus_19.3 bus2=bus_20.3 linecode=LCode_25 length=1.0 units=km
new linecode.LCode_26 nphases=1 rmatrix=[0.813457] xmatrix=[1.242115] units=km
new line.line_26 bus1=bus_20.3 bus2=bus_21.3 linecode=LCode_26 length=1.0 units=km
new linecode.LCode_27 nphases=1 rmatrix=[0.673972] xmatrix=[1.280854] units=km
new line.line_27 bus1=bus_21.3 bus2=bus_22.3 linecode=LCode_27 length=1.0 units=km
new linecode.LCode_28 nphases=1 rmatrix=[0.877711] xmatrix=[1.242115] units=km
new line.line_28 bus1=bus_22.3 bus2=bus_23.3 linecode=LCode_28 length=1.0 units=km
new linecode.LCode_29 nphases=1 rmatrix=[0.308916] xmatrix=[1.646616] units=km
new line.line_29 bus1=bus_22.3 bus2=bus_24.3 linecode=LCode_29 length=1.0 units=km
new linecode.LCode_30 nphases=1 rmatrix=[0.552282] xmatrix=[1.242115] units=km
new line.line_30 bus1=bus_24.3 bus2=bus_26.3 linecode=LCode_30 length=1.0 units=km
new linecode.LCode_31 nphases=1 rmatrix=[0.695017] xmatrix=[1.293042] units=km
new line.line_31 bus1=bus_26.3 bus2=bus_27.3 linecode=LCode_31 length=1.0 units=km
new linecode.LCode_32 nphases=1 rmatrix=[0.838839] xmatrix=[1.242115] units=km
new line.line_32 bus1=bus_27.3 bus2=bus_28.3 linecode=LCode_32 length=1.0 units=km
new linecode.LCode_33 nphases=1 rmatrix=[0.449139] xmatrix=[1.334004] units=km
new line.line_33 bus1=bus_7.3 bus2=bus_29.3 linecode=LCode_33 length=1.0 units=km
new linecode.LCode_34 nphases=1 rmatrix=[1.129403] xmatrix=[1.242115] units=km
new line.line_34 bus1=bus_25.3 bus2=bus_29.3 linecode=LCode_34 length=1.0 units=km
new linecode.LCode_35 nphases=1 rmatrix=[0.990918] xmatrix=[1.283881] units=km
new line.line_35 bus1=bus_16.3 bus2=bus_30.3 linecode=LCode_35 length=1.0 units=km
new linecode.LCode_36 nphases=1 rmatrix=[0.684519] xmatrix=[1.242115] units=km
new line.line_36 bus1=bus_28.3 bus2=bus_30.3 linecode=LCode_36 length=1.0 units=km
new linecode.LCode_37 nphases=1 rmatrix=[0.581175] xmatrix=[1.315891] units=km
new line.line_37 bus1=bus_22.3 bus2=bus_31.3 linecode=LCode_37 length=1.0 units=km
new linecode.LCode_38 nphases=1 rmatrix=[0.731252] xmatrix=[1.242115] units=km
new line.line_38 bus1=bus_30.3 bus2=bus_31.3 linecode=LCode_38 length=1.0 units=km
new linecode.LCode_39 nphases=1 rmatrix=[0.723796] xmatrix=[1.242115] units=km
new line.line_39 bus1=bus_26.3 bus2=bus_31.3 linecode=LCode_39 length=1.0 units=km
new linecode.LCode_40 nphases=1 rmatrix=[0.621277] xmatrix=[1.455612] units=km
new line.line_40 bus1=bus_14.1 bus2=bus_32.1 linecode=LCode_40 length=1.0 units=km
new linecode.LCode_41 nphases=1 rmatrix=[0.825953] xmatrix=[1.242115] units=km
new line.line_41 bus1=bus_18.1 bus2=bus_33.1 linecode=LCode_41 length=1.0 units=km
new linecode.LCode_42 nphases=1 rmatrix=[0.129757] xmatrix=[1.324748] units=km
new line.line_42 bus1=bus_34.1 bus2=bus_35.1 linecode=LCode_42 length=1.0 units=km
new linecode.LCode_43 nphases=1 rmatrix=[0.460345] xmatrix=[1.369845] units=km
new line.line_43 bus1=bus_34.1 bus2=bus_36.1 linecode=LCode_43 length=1.0 units=km
new linecode.LCode_44 nphases=1 rmatrix=[0.473724] xmatrix=[1.299048] units=km
new line.line_44 bus1=bus_32.1 bus2=bus_36.1 linecode=LCode_44 length=1.0 units=km
new linecode.LCode_45 nphases=1 rmatrix=[1.140117] xmatrix=[1.449627] units=km
new line.line_45 bus1=bus_33.1 bus2=bus_35.1 linecode=LCode_45 length=1.0 units=km
new linecode.LCode_46 nphases=1 rmatrix=[1.139890] xmatrix=[1.352978] units=km
new line.line_46 bus1=bus_33.1 bus2=bus_36.1 linecode=LCode_46 length=1.0 units=km
new linecode.LCode_47 nphases=1 rmatrix=[1.014174] xmatrix=[1.642632] units=km
new line.line_47 bus1=bus_36.1 bus2=bus_38.1 linecode=LCode_47 length=1.0 units=km
new linecode.LCode_48 nphases=1 rmatrix=[0.921630] xmatrix=[1.649005] units=km
new line.line_48 bus1=bus_36.1 bus2=bus_39.1 linecode=LCode_48 length=1.0 units=km
new linecode.LCode_49 nphases=2 rmatrix=[0.749101 | 0.059160 0.749101] xmatrix=[1.470916 | 1.024695 1.470916] units=km
new line.line_49 bus1=bus_29.2.3 bus2=bus_37.2.3 linecode=LCode_49 length=1.0 units=km
new linecode.LCode_50 nphases=1 rmatrix=[0.664325] xmatrix=[1.261113] units=km
new line.line_50 bus1=bus_38.1 bus2=bus_39.1 linecode=LCode_50 length=1.0 units=km
new linecode.LCode_51 nphases=1 rmatrix=[0.829565] xmatrix=[1.243790] units=km
new line.line_51 bus1=bus_39.1 bus2=bus_40.1 linecode=LCode_51 length=1.0 units=km
new linecode.LCode_52 nphases=1 rmatrix=[0.263456] xmatrix=[1.299640] units=km
new line.line_52 bus1=bus_39.1 bus2=bus_41.1 linecode=LCode_52 length=1.0 units=km
new linecode.LCode_53 nphases=1 rmatrix=[0.255703] xmatrix=[1.242115] units=km
new line.line_53 bus1=bus_40.1 bus2=bus_41.1 linecode=LCode_53 length=1.0 units=km
new linecode.LCode_54 nphases=1 rmatrix=[0.726415] xmatrix=[1.302307] units=km
new line.line_54 bus1=bus_42.1 bus2=bus_43.1 linecode=LCode_54 length=1.0 units=km
new linecode.LCode_55 nphases=1 rmatrix=[0.489286] xmatrix=[1.242115] units=km
new line.line_55 bus1=bus_33.1 bus2=bus_42.1 linecode=LCode_55 length=1.0 units=km
new linecode.LCode_56 nphases=1 rmatrix=[1.105697] xmatrix=[1.378541] units=km
new line.line_56 bus1=bus_43.1 bus2=bus_44.1 linecode=LCode_56 length=1.0 units=km
new linecode.LCode_57 nphases=1 rmatrix=[0.246416] xmatrix=[1.242115] units=km
new line.line_57 bus1=bus_44.1 bus2=bus_45.1 linecode=LCode_57 length=1.0 units=km
new linecode.LCode_58 nphases=1 rmatrix=[0.230389] xmatrix=[1.271751] units=km
new line.line_58 bus1=bus_45.1 bus2=bus_46.1 linecode=LCode_58 length=1.0 units=km
new linecode.LCode_59 nphases=1 rmatrix=[0.428010] xmatrix=[1.248616] units=km
new line.line_59 bus1=bus_45.1 bus2=bus_47.1 linecode=LCode_59 length=1.0 units=km
new linecode.LCode_60 nphases=1 rmatrix=[0.637811] xmatrix=[1.334976] units=km
new line.line_60 bus1=bus_46.1 bus2=bus_48.1 linecode=LCode_60 length=1.0 units=km
new linecode.LCode_61 nphases=1 rmatrix=[0.938765] xmatrix=[1.492845] units=km
new line.line_61 bus1=bus_41.1 bus2=bus_48.1 linecode=LCode_61 length=1.0 units=km
new linecode.LCode_62 nphases=1 rmatrix=[0.715186] xmatrix=[1.242115] units=km
new line.line_62 bus1=bus_41.1 bus2=bus_48.1 linecode=LCode_62 length=1.0 units=km
new linecode.LCode_63 nphases=1 rmatrix=[0.970430] xmatrix=[1.242115] units=km
new line.line_63 bus1=bus_44.1 bus2=bus_48.1 linecode=LCode_63 length=1.0 units=km
new linecode.LCode_64 nphases=1 rmatrix=[0.629590] xmatrix=[1.640968] units=km
new line.line_64 bus1=bus_47.1 bus2=bus_48.1 linecode=LCode_64 length=1.0 units=km
new linecode.LCode_65 nphases=1 rmatrix=[0.877895] xmatrix=[1.386860] units=km
new line.line_65 bus1=bus_48.1 bus2=bus_49.1 linecode=LCode_65 length=1.0 units=km
new linecode.LCode_66 nphases=1 rmatrix=[0.286293] xmatrix=[1.521602] units=km
new line.line_66 bus1=bus_48.1 bus2=bus_50.1 linecode=LCode_66 length=1.0 units=km
new linecode.LCode_67 nphases=1 rmatrix=[1.019650] xmatrix=[1.428308] units=km
new line.line_67 bus1=bus_50.1 bus2=bus_51.1 linecode=LCode_67 length=1.0 units=km
new linecode.LCode_68 nphases=1 rmatrix=[0.602226] xmatrix=[1.242115] units=km
new line.line_68 bus1=bus_51.1 bus2=bus_52.1 linecode=LCode_68 length=1.0 units=km
new linecode.LCode_69 nphases=1 rmatrix=[1.021307] xmatrix=[1.242115] units=km
new line.line_69 bus1=bus_52.1 bus2=bus_53.1 linecode=LCode_69 length=1.0 units=km
new linecode.LCode_70 nphases=1 rmatrix=[1.192522] xmatrix=[1.371498] units=km
new line.line_70 bus1=bus_48.1 bus2=bus_53.1 linecode=LCode_70 length=1.0 units=km
new linecode.LCode_71 nphases=1 rmatrix=[0.916597] xmatrix=[1.435227] units=km
new line.line_71 bus1=bus_48.1 bus2=bus_53.1 linecode=LCode_71 length=1.0 units=km
new linecode.LCode_72 nphases=1 rmatrix=[0.602416] xmatrix=[1.386095] units=km
new line.line_72 bus1=bus_53.1 bus2=bus_54.1 linecode=LCode_72 length=1.0 units=km
new linecode.LCode_73 nphases=1 rmatrix=[0.727209] xmatrix=[1.448251] units=km
new line.line_73 bus1=bus_53.1 bus2=bus_55.1 linecode=LCode_73 length=1.0 units=km
new linecode.LCode_74 nphases=1 rmatrix=[0.839400] xmatrix=[1.242115] units=km
new line.line_74 bus1=bus_54.1 bus2=bus_55.1 linecode=LCode_74 length=1.0 units=km
new linecode.LCode_75 nphases=1 rmatrix=[0.647098] xmatrix=[1.254146] units=km
new line.line_75 bus1=bus_55.1 bus2=bus_56.1 linecode=LCode_75 length=1.0 units=km
new linecode.LCode_76 nphases=1 rmatrix=[0.214341] xmatrix=[1.286150] units=km
new line.line_76 bus1=bus_49.1 bus2=bus_56.1 linecode=LCode_76 length=1.0 units=km
new linecode.LCode_77 nphases=1 rmatrix=[0.224601] xmatrix=[1.272805] units=km
new line.line_77 bus1=bus_55.1 bus2=bus_57.1 linecode=LCode_77 length=1.0 units=km
new linecode.LCode_78 nphases=1 rmatrix=[0.218207] xmatrix=[1.266243] units=km
new line.line_78 bus1=bus_50.1 bus2=bus_57.1 linecode=LCode_78 length=1.0 units=km
new linecode.LCode_79 nphases=1 rmatrix=[0.521801] xmatrix=[1.390727] units=km
new line.line_79 bus1=bus_53.1 bus2=bus_58.1 linecode=LCode_79 length=1.0 units=km
new linecode.LCode_80 nphases=1 rmatrix=[1.148559] xmatrix=[1.341114] units=km
new line.line_80 bus1=bus_55.1 bus2=bus_58.1 linecode=LCode_80 length=1.0 units=km
new linecode.LCode_81 nphases=1 rmatrix=[0.535165] xmatrix=[1.242115] units=km
new line.line_81 bus1=bus_55.1 bus2=bus_58.1 linecode=LCode_81 length=1.0 units=km
new linecode.LCode_82 nphases=1 rmatrix=[0.601188] xmatrix=[1.295501] units=km
new line.line_82 bus1=bus_54.1 bus2=bus_58.1 linecode=LCode_82 length=1.0 units=km
new linecode.LCode_83 nphases=1 rmatrix=[0.798885] xmatrix=[1.242115] units=km
new line.line_83 bus1=bus_58.1 bus2=bus_59.1 linecode=LCode_83 length=1.0 units=km
new linecode.LCode_84 nphases=1 rmatrix=[0.822004] xmatrix=[1.242115] units=km
new line.line_84 bus1=bus_58.1 bus2=bus_60.1 linecode=LCode_84 length=1.0 units=km
new linecode.LCode_85 nphases=1 rmatrix=[0.881069] xmatrix=[1.419916] units=km
new line.line_85 bus1=bus_59.1 bus2=bus_60.1 linecode=LCode_85 length=1.0 units=km
new linecode.LCode_86 nphases=1 rmatrix=[0.317702] xmatrix=[1.320023] units=km
new line.line_86 bus1=bus_59.1 bus2=bus_61.1 linecode=LCode_86 length=1.0 units=km
new linecode.LCode_87 nphases=1 rmatrix=[0.808555] xmatrix=[1.242115] units=km
new line.line_87 bus1=bus_60.1 bus2=bus_61.1 linecode=LCode_87 length=1.0 units=km
new linecode.LCode_88 nphases=2 rmatrix=[1.275606 | 0.059160 1.275606] xmatrix=[1.242115 | 1.024695 1.242115] units=km
new line.line_88 bus1=bus_62.2.3 bus2=bus_63.2.3 linecode=LCode_88 length=1.0 units=km
new linecode.LCode_89 nphases=2 rmatrix=[0.642266 | 0.059160 0.642266] xmatrix=[1.242115 | 1.024695 1.242115] units=km
new line.line_89 bus1=bus_37.2.3 bus2=bus_64.2.3 linecode=LCode_89 length=1.0 units=km
new linecode.LCode_90 nphases=2 rmatrix=[0.830534 | 0.059160 0.830534] xmatrix=[1.395334 | 1.024695 1.395334] units=km
new line.line_90 bus1=bus_63.2.3 bus2=bus_64.2.3 linecode=LCode_90 length=1.0 units=km
new linecode.LCode_91 nphases=1 rmatrix=[1.111552] xmatrix=[1.282639] units=km
new line.line_91 bus1=bus_48.1 bus2=bus_65.1 linecode=LCode_91 length=1.0 units=km
new linecode.LCode_92 nphases=1 rmatrix=[0.178497] xmatrix=[1.574393] units=km
new line.line_92 bus1=bus_48.1 bus2=bus_65.1 linecode=LCode_92 length=1.0 units=km
new linecode.LCode_93 nphases=1 rmatrix=[0.572292] xmatrix=[1.242115] units=km
new line.line_93 bus1=bus_61.1 bus2=bus_65.1 linecode=LCode_93 length=1.0 units=km
new linecode.LCode_94 nphases=1 rmatrix=[0.710266] xmatrix=[1.242115] units=km
new line.line_94 bus1=bus_61.1 bus2=bus_66.1 linecode=LCode_94 length=1.0 units=km
new linecode.LCode_95 nphases=1 rmatrix=[0.608962] xmatrix=[1.576868] units=km
new line.line_95 bus1=bus_65.1 bus2=bus_66.1 linecode=LCode_95 length=1.0 units=km
new linecode.LCode_96 nphases=2 rmatrix=[0.227757 | 0.059160 0.227757] xmatrix=[1.242115 | 1.024695 1.242115] units=km
new line.line_96 bus1=bus_46.1.2 bus2=bus_68.1.2 linecode=LCode_96 length=1.0 units=km
new linecode.LCode_97 nphases=1 rmatrix=[0.507306] xmatrix=[1.242115] units=km
new line.line_97 bus1=bus_48.1 bus2=bus_68.1 linecode=LCode_97 length=1.0 units=km
new linecode.LCode_98 nphases=2 rmatrix=[0.265621 | 0.059160 0.265621] xmatrix=[1.463070 | 0.940589 1.463070] units=km
new line.line_98 bus1=bus_68.1.3 bus2=bus_69.1.3 linecode=LCode_98 length=1.0 units=km
new linecode.LCode_99 nphases=1 rmatrix=[0.161250] xmatrix=[1.477110] units=km
new line.line_99 bus1=bus_23.3 bus2=bus_69.3 linecode=LCode_99 length=1.0 units=km
new linecode.LCode_100 nphases=2 rmatrix=[0.618390 | 0.059160 0.618390] xmatrix=[1.280534 | 0.940589 1.280534] units=km
new line.line_100 bus1=bus_69.1.3 bus2=bus_70.1.3 linecode=LCode_100 length=1.0 units=km
new linecode.LCode_101 nphases=1 rmatrix=[0.793289] xmatrix=[1.360997] units=km
new line.line_101 bus1=bus_23.3 bus2=bus_71.3 linecode=LCode_101 length=1.0 units=km
new linecode.LCode_102 nphases=1 rmatrix=[0.571299] xmatrix=[1.242115] units=km
new line.line_102 bus1=bus_70.3 bus2=bus_71.3 linecode=LCode_102 length=1.0 units=km
new linecode.LCode_103 nphases=1 rmatrix=[1.116771] xmatrix=[1.304910] units=km
new line.line_103 bus1=bus_70.3 bus2=bus_72.3 linecode=LCode_103 length=1.0 units=km
new linecode.LCode_104 nphases=2 rmatrix=[0.573996 | 0.059160 0.573996] xmatrix=[1.276248 | 0.940589 1.276248] units=km
new line.line_104 bus1=bus_69.1.3 bus2=bus_73.1.3 linecode=LCode_104 length=1.0 units=km
new linecode.LCode_105 nphases=1 rmatrix=[0.289385] xmatrix=[1.242115] units=km
new line.line_105 bus1=bus_69.1 bus2=bus_74.1 linecode=LCode_105 length=1.0 units=km
new linecode.LCode_106 nphases=1 rmatrix=[0.859632] xmatrix=[1.295398] units=km
new line.line_106 bus1=bus_68.1 bus2=bus_74.1 linecode=LCode_106 length=1.0 units=km
new linecode.LCode_107 nphases=1 rmatrix=[0.258005] xmatrix=[1.346521] units=km
new line.line_107 bus1=bus_73.1 bus2=bus_74.1 linecode=LCode_107 length=1.0 units=km
new linecode.LCode_108 nphases=1 rmatrix=[0.888030] xmatrix=[1.430666] units=km
new line.line_108 bus1=bus_75.2 bus2=bus_76.2 linecode=LCode_108 length=1.0 units=km
new linecode.LCode_109 nphases=1 rmatrix=[0.574293] xmatrix=[1.256516] units=km
new line.line_109 bus1=bus_68.2 bus2=bus_76.2 linecode=LCode_109 length=1.0 units=km
new linecode.LCode_111 nphases=1 rmatrix=[0.793388] xmatrix=[1.518914] units=km
new line.line_111 bus1=bus_76.2 bus2=bus_77.2 linecode=LCode_111 length=1.0 units=km
new linecode.LCode_112 nphases=1 rmatrix=[0.489575] xmatrix=[1.242115] units=km
new line.line_112 bus1=bus_77.2 bus2=bus_78.2 linecode=LCode_112 length=1.0 units=km
new linecode.LCode_113 nphases=1 rmatrix=[0.769248] xmatrix=[1.242115] units=km
new line.line_113 bus1=bus_76.2 bus2=bus_79.2 linecode=LCode_113 length=1.0 units=km
new linecode.LCode_114 nphases=1 rmatrix=[0.327589] xmatrix=[1.326108] units=km
new line.line_114 bus1=bus_76.2 bus2=bus_79.2 linecode=LCode_114 length=1.0 units=km
new linecode.LCode_115 nphases=1 rmatrix=[0.796916] xmatrix=[1.305809] units=km
new line.line_115 bus1=bus_78.2 bus2=bus_79.2 linecode=LCode_115 length=1.0 units=km
new linecode.LCode_116 nphases=1 rmatrix=[1.101695] xmatrix=[1.242115] units=km
new line.line_116 bus1=bus_76.2 bus2=bus_81.2 linecode=LCode_116 length=1.0 units=km
new linecode.LCode_117 nphases=1 rmatrix=[0.537451] xmatrix=[1.336290] units=km
new line.line_117 bus1=bus_81.2 bus2=bus_82.2 linecode=LCode_117 length=1.0 units=km
new linecode.LCode_118 nphases=1 rmatrix=[0.568619] xmatrix=[1.290507] units=km
new line.line_118 bus1=bus_82.2 bus2=bus_83.2 linecode=LCode_118 length=1.0 units=km
new linecode.LCode_119 nphases=1 rmatrix=[0.945928] xmatrix=[1.264595] units=km
new line.line_119 bus1=bus_82.2 bus2=bus_84.2 linecode=LCode_119 length=1.0 units=km
new linecode.LCode_120 nphases=1 rmatrix=[0.876519] xmatrix=[1.303273] units=km
new line.line_120 bus1=bus_83.2 bus2=bus_84.2 linecode=LCode_120 length=1.0 units=km
new linecode.LCode_121 nphases=1 rmatrix=[1.137334] xmatrix=[1.367497] units=km
new line.line_121 bus1=bus_84.2 bus2=bus_85.2 linecode=LCode_121 length=1.0 units=km
new linecode.LCode_122 nphases=1 rmatrix=[0.709921] xmatrix=[1.307769] units=km
new line.line_122 bus1=bus_84.2 bus2=bus_87.2 linecode=LCode_122 length=1.0 units=km
new linecode.LCode_123 nphases=1 rmatrix=[0.812903] xmatrix=[1.242115] units=km
new line.line_123 bus1=bus_84.2 bus2=bus_88.2 linecode=LCode_123 length=1.0 units=km
new linecode.LCode_124 nphases=1 rmatrix=[0.931900] xmatrix=[1.249166] units=km
new line.line_124 bus1=bus_87.2 bus2=bus_88.2 linecode=LCode_124 length=1.0 units=km
new linecode.LCode_125 nphases=1 rmatrix=[0.649317] xmatrix=[1.478969] units=km
new line.line_125 bus1=bus_88.2 bus2=bus_89.2 linecode=LCode_125 length=1.0 units=km
new linecode.LCode_126 nphases=1 rmatrix=[0.351886] xmatrix=[1.317523] units=km
new line.line_126 bus1=bus_88.2 bus2=bus_89.2 linecode=LCode_126 length=1.0 units=km
new linecode.LCode_127 nphases=1 rmatrix=[0.958956] xmatrix=[1.252014] units=km
new line.line_127 bus1=bus_89.2 bus2=bus_90.2 linecode=LCode_127 length=1.0 units=km
new linecode.LCode_128 nphases=1 rmatrix=[0.419790] xmatrix=[1.242115] units=km
new line.line_128 bus1=bus_88.2 bus2=bus_91.2 linecode=LCode_128 length=1.0 units=km
new linecode.LCode_129 nphases=1 rmatrix=[0.711685] xmatrix=[1.295124] units=km
new line.line_129 bus1=bus_88.2 bus2=bus_91.2 linecode=LCode_129 length=1.0 units=km
new linecode.LCode_130 nphases=1 rmatrix=[0.575555] xmatrix=[1.255550] units=km
new line.line_130 bus1=bus_90.2 bus2=bus_91.2 linecode=LCode_130 length=1.0 units=km
new linecode.LCode_131 nphases=1 rmatrix=[0.795502] xmatrix=[1.308509] units=km
new line.line_131 bus1=bus_91.2 bus2=bus_92.2 linecode=LCode_131 length=1.0 units=km
new linecode.LCode_132 nphases=1 rmatrix=[0.807058] xmatrix=[1.283504] units=km
new line.line_132 bus1=bus_91.2 bus2=bus_93.2 linecode=LCode_132 length=1.0 units=km
new linecode.LCode_133 nphases=1 rmatrix=[0.695703] xmatrix=[1.270753] units=km
new line.line_133 bus1=bus_92.2 bus2=bus_93.2 linecode=LCode_133 length=1.0 units=km
new linecode.LCode_134 nphases=1 rmatrix=[1.004377] xmatrix=[1.283245] units=km
new line.line_134 bus1=bus_93.2 bus2=bus_94.2 linecode=LCode_134 length=1.0 units=km
new linecode.LCode_135 nphases=1 rmatrix=[0.317314] xmatrix=[1.242115] units=km
new line.line_135 bus1=bus_79.2 bus2=bus_95.2 linecode=LCode_135 length=1.0 units=km
new linecode.LCode_136 nphases=1 rmatrix=[1.253006] xmatrix=[1.242115] units=km
new line.line_136 bus1=bus_81.2 bus2=bus_95.2 linecode=LCode_136 length=1.0 units=km
new linecode.LCode_137 nphases=1 rmatrix=[1.283700] xmatrix=[1.242115] units=km
new line.line_137 bus1=bus_93.2 bus2=bus_95.2 linecode=LCode_137 length=1.0 units=km
new linecode.LCode_138 nphases=1 rmatrix=[0.654957] xmatrix=[1.242115] units=km
new line.line_138 bus1=bus_79.2 bus2=bus_96.2 linecode=LCode_138 length=1.0 units=km
new linecode.LCode_139 nphases=1 rmatrix=[0.900205] xmatrix=[1.336861] units=km
new line.line_139 bus1=bus_79.2 bus2=bus_97.2 linecode=LCode_139 length=1.0 units=km
new linecode.LCode_140 nphases=1 rmatrix=[0.933937] xmatrix=[1.257471] units=km
new line.line_140 bus1=bus_79.2 bus2=bus_98.2 linecode=LCode_140 length=1.0 units=km
new linecode.LCode_141 nphases=1 rmatrix=[0.275063] xmatrix=[1.274145] units=km
new line.line_141 bus1=bus_91.2 bus2=bus_99.2 linecode=LCode_141 length=1.0 units=km
new linecode.LCode_142 nphases=1 rmatrix=[0.797418] xmatrix=[1.544601] units=km
new line.line_142 bus1=bus_93.2 bus2=bus_99.2 linecode=LCode_142 length=1.0 units=km
new linecode.LCode_143 nphases=1 rmatrix=[0.573245] xmatrix=[1.242115] units=km
new line.line_143 bus1=bus_94.2 bus2=bus_95.2 linecode=LCode_143 length=1.0 units=km
new linecode.LCode_144 nphases=1 rmatrix=[0.607667] xmatrix=[1.366032] units=km
new line.line_144 bus1=bus_95.2 bus2=bus_96.2 linecode=LCode_144 length=1.0 units=km
new linecode.LCode_145 nphases=1 rmatrix=[0.929405] xmatrix=[1.242115] units=km
new line.line_145 bus1=bus_97.2 bus2=bus_99.2 linecode=LCode_145 length=1.0 units=km
new linecode.LCode_146 nphases=1 rmatrix=[0.842690] xmatrix=[1.304338] units=km
new line.line_146 bus1=bus_98.2 bus2=bus_99.2 linecode=LCode_146 length=1.0 units=km
new linecode.LCode_147 nphases=1 rmatrix=[0.615208] xmatrix=[1.242115] units=km
new line.line_147 bus1=bus_99.2 bus2=bus_100.2 linecode=LCode_147 length=1.0 units=km
new linecode.LCode_148 nphases=1 rmatrix=[0.488018] xmatrix=[1.242115] units=km
new line.line_148 bus1=bus_91.2 bus2=bus_101.2 linecode=LCode_148 length=1.0 units=km
new linecode.LCode_149 nphases=1 rmatrix=[0.691400] xmatrix=[1.242115] units=km
new line.line_149 bus1=bus_100.2 bus2=bus_101.2 linecode=LCode_149 length=1.0 units=km
new linecode.LCode_150 nphases=1 rmatrix=[1.062437] xmatrix=[1.430796] units=km
new line.line_150 bus1=bus_99.2 bus2=bus_102.2 linecode=LCode_150 length=1.0 units=km
new linecode.LCode_151 nphases=1 rmatrix=[0.438735] xmatrix=[1.360424] units=km
new line.line_151 bus1=bus_99.2 bus2=bus_103.2 linecode=LCode_151 length=1.0 units=km
new linecode.LCode_152 nphases=1 rmatrix=[1.054734] xmatrix=[1.303640] units=km
new line.line_152 bus1=bus_102.2 bus2=bus_103.2 linecode=LCode_152 length=1.0 units=km
new linecode.LCode_153 nphases=1 rmatrix=[0.462930] xmatrix=[1.242115] units=km
new line.line_153 bus1=bus_102.2 bus2=bus_104.2 linecode=LCode_153 length=1.0 units=km
new linecode.LCode_154 nphases=1 rmatrix=[0.682995] xmatrix=[1.485000] units=km
new line.line_154 bus1=bus_99.2 bus2=bus_105.2 linecode=LCode_154 length=1.0 units=km
new linecode.LCode_155 nphases=1 rmatrix=[0.590714] xmatrix=[1.242115] units=km
new line.line_155 bus1=bus_103.2 bus2=bus_104.2 linecode=LCode_155 length=1.0 units=km
new linecode.LCode_156 nphases=1 rmatrix=[0.507261] xmatrix=[1.278795] units=km
new line.line_156 bus1=bus_104.2 bus2=bus_105.2 linecode=LCode_156 length=1.0 units=km
new linecode.LCode_157 nphases=1 rmatrix=[0.743432] xmatrix=[1.558867] units=km
new line.line_157 bus1=bus_104.2 bus2=bus_106.2 linecode=LCode_157 length=1.0 units=km
new linecode.LCode_158 nphases=1 rmatrix=[1.025848] xmatrix=[1.254483] units=km
new line.line_158 bus1=bus_104.2 bus2=bus_107.2 linecode=LCode_158 length=1.0 units=km
new linecode.LCode_159 nphases=1 rmatrix=[0.862345] xmatrix=[1.520360] units=km
new line.line_159 bus1=bus_105.2 bus2=bus_106.2 linecode=LCode_159 length=1.0 units=km
new linecode.LCode_160 nphases=1 rmatrix=[0.615976] xmatrix=[1.463429] units=km
new line.line_160 bus1=bus_107.2 bus2=bus_108.2 linecode=LCode_160 length=1.0 units=km
new linecode.LCode_161 nphases=1 rmatrix=[0.822571] xmatrix=[1.317748] units=km
new line.line_161 bus1=bus_102.2 bus2=bus_109.2 linecode=LCode_161 length=1.0 units=km
new linecode.LCode_162 nphases=1 rmatrix=[1.057854] xmatrix=[1.242115] units=km
new line.line_162 bus1=bus_108.2 bus2=bus_109.2 linecode=LCode_162 length=1.0 units=km
new linecode.LCode_163 nphases=1 rmatrix=[0.522900] xmatrix=[1.251035] units=km
new line.line_163 bus1=bus_109.2 bus2=bus_110.2 linecode=LCode_163 length=1.0 units=km
new linecode.LCode_164 nphases=1 rmatrix=[1.311495] xmatrix=[1.793339] units=km
new line.line_164 bus1=bus_109.2 bus2=bus_111.2 linecode=LCode_164 length=1.0 units=km
new linecode.LCode_165 nphases=1 rmatrix=[0.798842] xmatrix=[1.242115] units=km
new line.line_165 bus1=bus_16.3 bus2=bus_112.3 linecode=LCode_165 length=1.0 units=km
new linecode.LCode_166 nphases=1 rmatrix=[0.798064] xmatrix=[1.562548] units=km
new line.line_166 bus1=bus_31.3 bus2=bus_112.3 linecode=LCode_166 length=1.0 units=km
new linecode.LCode_167 nphases=1 rmatrix=[0.708365] xmatrix=[1.395475] units=km
new line.line_167 bus1=bus_31.3 bus2=bus_113.3 linecode=LCode_167 length=1.0 units=km
new linecode.LCode_168 nphases=1 rmatrix=[0.178814] xmatrix=[1.242115] units=km
new line.line_168 bus1=bus_26.3 bus2=bus_114.3 linecode=LCode_168 length=1.0 units=km
new linecode.LCode_169 nphases=1 rmatrix=[0.692079] xmatrix=[1.256464] units=km
new line.line_169 bus1=bus_113.3 bus2=bus_114.3 linecode=LCode_169 length=1.0 units=km
new linecode.LCode_170 nphases=1 rmatrix=[0.554467] xmatrix=[1.242115] units=km
new line.line_170 bus1=bus_11.3 bus2=bus_116.3 linecode=LCode_170 length=1.0 units=km
new linecode.LCode_171 nphases=1 rmatrix=[0.887678] xmatrix=[1.294803] units=km
new line.line_171 bus1=bus_74.1 bus2=bus_117.1 linecode=LCode_171 length=1.0 units=km

!---------------- LOADS ----------------

new load.load_0_C bus1=bus_0.3 Phases=1 kv=157.6864406779661 kw=1629.2879888203086 kvar=534.4064603330612 vminpu=0.85
new load.load_1_C bus1=bus_1.3 Phases=1 kv=157.6864406779661 kw=2355.8404300969896 kvar=772.7156610718126 vminpu=0.85
new load.load_2_C bus1=bus_2.3 Phases=1 kv=157.6864406779661 kw=2195.3880362158907 kvar=720.0872758788122 vminpu=0.85
new load.load_3_C bus1=bus_3.3 Phases=1 kv=157.6864406779661 kw=2119.192097088796 kvar=695.0950078451251 vminpu=0.85
new load.load_4_C bus1=bus_4.3 Phases=1 kv=157.6864406779661 kw=2425.0316378814964 kvar=795.4103772251309 vminpu=0.85
new load.load_5_C bus1=bus_5.3 Phases=1 kv=157.6864406779661 kw=2055.398198686142 kvar=674.1706091690547 vminpu=0.85
new load.load_6_C bus1=bus_6.3 Phases=1 kv=157.6864406779661 kw=2237.389503982372 kvar=733.8637573062181 vminpu=0.85
new load.load_7_C bus1=bus_7.3 Phases=1 kv=157.6864406779661 kw=2255.5517604329784 kvar=739.820977422017 vminpu=0.85
new load.load_8_C bus1=bus_8.3 Phases=1 kv=157.6864406779661 kw=2435.013796788463 kvar=798.6845253466159 vminpu=0.85
new load.load_9_C bus1=bus_9.3 Phases=1 kv=157.6864406779661 kw=2283.079945316909 kvar=748.8502220639461 vminpu=0.85
new load.load_10_C bus1=bus_10.3 Phases=1 kv=157.6864406779661 kw=2088.262831423535 kvar=684.9502087069195 vminpu=0.85
new load.load_11_C bus1=bus_11.3 Phases=1 kv=157.6864406779661 kw=2441.118629781632 kvar=800.6869105683753 vminpu=0.85
new load.load_12_A bus1=bus_12.1 Phases=1 kv=157.6864406779661 kw=1691.7932334962895 kvar=554.908180586783 vminpu=0.85
new load.load_13_A bus1=bus_13.1 Phases=1 kv=157.6864406779661 kw=2187.892222869095 kvar=717.6286491010632 vminpu=0.85
new load.load_14_A bus1=bus_14.1 Phases=1 kv=157.6864406779661 kw=2298.2473052220125 kvar=753.8251161128202 vminpu=0.85
new load.load_15_B bus1=bus_15.2 Phases=1 kv=157.6864406779661 kw=2380.830715320384 kvar=780.912474625086 vminpu=0.85
new load.load_15_C bus1=bus_15.3 Phases=1 kv=157.6864406779661 kw=402.7113219472986 kvar=132.08931359871394 vminpu=0.85
new load.load_16_B bus1=bus_16.2 Phases=1 kv=157.6864406779661 kw=1024.6364638172126 kvar=336.0807601320458 vminpu=0.85
new load.load_16_C bus1=bus_16.3 Phases=1 kv=157.6864406779661 kw=1252.6181842421706 kvar=410.858764431432 vminpu=0.85
new load.load_17_B bus1=bus_17.2 Phases=1 kv=157.6864406779661 kw=608.1753420923399 kvar=199.48151220628748 vminpu=0.85
new load.load_17_C bus1=bus_17.3 Phases=1 kv=157.6864406779661 kw=887.0329364876046 kvar=290.9468031679343 vminpu=0.85
new load.load_18_A bus1=bus_18.1 Phases=1 kv=157.6864406779661 kw=1871.8060200160369 kvar=613.9523745652601 vminpu=0.85
new load.load_19_C bus1=bus_19.3 Phases=1 kv=157.6864406779661 kw=2247.7703048304 kvar=737.2686599843713 vminpu=0.85
new load.load_20_C bus1=bus_20.3 Phases=1 kv=157.6864406779661 kw=1423.1188113399494 kvar=466.78297011950343 vminpu=0.85
new load.load_21_C bus1=bus_21.3 Phases=1 kv=157.6864406779661 kw=2076.950136173287 kvar=681.2396446648381 vminpu=0.85
new load.load_22_C bus1=bus_22.3 Phases=1 kv=157.6864406779661 kw=1845.7212208465508 kvar=605.3965604376687 vminpu=0.85
new load.load_23_C bus1=bus_23.3 Phases=1 kv=157.6864406779661 kw=1669.5915667196557 kvar=547.626033884047 vminpu=0.85
new load.load_24_C bus1=bus_24.3 Phases=1 kv=157.6864406779661 kw=2340.262413000531 kvar=767.6060714641742 vminpu=0.85
new load.load_25_C bus1=bus_25.3 Phases=1 kv=157.6864406779661 kw=1821.3785945295504 kvar=597.4121790056926 vminpu=0.85
new load.load_26_C bus1=bus_26.3 Phases=1 kv=157.6864406779661 kw=2041.031497251944 kvar=669.4583310986377 vminpu=0.85
new load.load_27_C bus1=bus_27.3 Phases=1 kv=157.6864406779661 kw=1988.8687145850656 kvar=652.3489383839016 vminpu=0.85
new load.load_28_C bus1=bus_28.3 Phases=1 kv=157.6864406779661 kw=2049.088267873836 kvar=672.1009518626182 vminpu=0.85
new load.load_29_B bus1=bus_29.2 Phases=1 kv=157.6864406779661 kw=339.4955838141015 kvar=111.3545514910253 vminpu=0.85
new load.load_29_C bus1=bus_29.3 Phases=1 kv=157.6864406779661 kw=2375.330504373952 kvar=779.1084054346562 vminpu=0.85
new load.load_30_C bus1=bus_30.3 Phases=1 kv=157.6864406779661 kw=1698.063741487363 kvar=556.964907207855 vminpu=0.85
new load.load_31_C bus1=bus_31.3 Phases=1 kv=157.6864406779661 kw=2227.626654728774 kvar=730.6615427510379 vminpu=0.85
new load.load_32_A bus1=bus_32.1 Phases=1 kv=157.6864406779661 kw=1362.8257142806217 kvar=447.0068342840439 vminpu=0.85
new load.load_33_A bus1=bus_33.1 Phases=1 kv=157.6864406779661 kw=1847.311693139094 kvar=605.9182353496228 vminpu=0.85
new load.load_34_A bus1=bus_34.1 Phases=1 kv=157.6864406779661 kw=2890.735817653725 kvar=948.1613481904218 vminpu=0.85
new load.load_35_A bus1=bus_35.1 Phases=1 kv=157.6864406779661 kw=2424.705651029203 kvar=795.3034535375787 vminpu=0.85
new load.load_36_A bus1=bus_36.1 Phases=1 kv=157.6864406779661 kw=2124.8029561571943 kvar=696.9353696195598 vminpu=0.85
new load.load_37_B bus1=bus_37.2 Phases=1 kv=157.6864406779661 kw=233.578902674329 kvar=76.61388007717991 vminpu=0.85
new load.load_37_C bus1=bus_37.3 Phases=1 kv=157.6864406779661 kw=1697.650984699044 kvar=556.8295229812865 vminpu=0.85
new load.load_38_A bus1=bus_38.1 Phases=1 kv=157.6864406779661 kw=1718.8304937545704 kvar=563.7764019514991 vminpu=0.85
new load.load_39_A bus1=bus_39.1 Phases=1 kv=157.6864406779661 kw=1826.7533985403647 kvar=599.1751147212397 vminpu=0.85
new load.load_40_A bus1=bus_40.1 Phases=1 kv=157.6864406779661 kw=2117.4763855235906 kvar=694.5322544517377 vminpu=0.85
new load.load_41_A bus1=bus_41.1 Phases=1 kv=157.6864406779661 kw=2221.89168495994 kvar=728.7804726668603 vminpu=0.85
new load.load_42_A bus1=bus_42.1 Phases=1 kv=157.6864406779661 kw=1526.2510454970627 kvar=500.61034292303657 vminpu=0.85
new load.load_43_A bus1=bus_43.1 Phases=1 kv=157.6864406779661 kw=2229.51089556476 kvar=731.2795737452414 vminpu=0.85
new load.load_44_A bus1=bus_44.1 Phases=1 kv=157.6864406779661 kw=1556.6692078720464 kvar=510.58750018203125 vminpu=0.85
new load.load_45_A bus1=bus_45.1 Phases=1 kv=157.6864406779661 kw=1837.321396678691 kvar=602.6414181106106 vminpu=0.85
new load.load_46_A bus1=bus_46.1 Phases=1 kv=157.6864406779661 kw=1177.2512729877476 kvar=386.1384175399812 vminpu=0.85
new load.load_46_B bus1=bus_46.2 Phases=1 kv=157.6864406779661 kw=391.758257942332 kvar=128.4967086050849 vminpu=0.85
new load.load_47_A bus1=bus_47.1 Phases=1 kv=157.6864406779661 kw=2129.5947798410416 kvar=698.5070877878617 vminpu=0.85
new load.load_48_A bus1=bus_48.1 Phases=1 kv=157.6864406779661 kw=2116.7425558949644 kvar=694.2915583335483 vminpu=0.85
new load.load_49_A bus1=bus_49.1 Phases=1 kv=157.6864406779661 kw=1378.8490570574847 kvar=452.262490714855 vminpu=0.85
new load.load_50_A bus1=bus_50.1 Phases=1 kv=157.6864406779661 kw=2078.248813282598 kvar=681.6656107566921 vminpu=0.85
new load.load_51_A bus1=bus_51.1 Phases=1 kv=157.6864406779661 kw=1672.305243551018 kvar=548.5161198847339 vminpu=0.85
new load.load_52_A bus1=bus_52.1 Phases=1 kv=157.6864406779661 kw=1910.552178068761 kvar=626.6611144065536 vminpu=0.85
new load.load_53_A bus1=bus_53.1 Phases=1 kv=157.6864406779661 kw=2383.034983674158 kvar=781.6354746451238 vminpu=0.85
new load.load_54_A bus1=bus_54.1 Phases=1 kv=157.6864406779661 kw=1342.12930972994 kvar=440.2184135914203 vminpu=0.85
new load.load_55_A bus1=bus_55.1 Phases=1 kv=157.6864406779661 kw=2285.259678035999 kvar=749.5651743958077 vminpu=0.85
new load.load_56_A bus1=bus_56.1 Phases=1 kv=157.6864406779661 kw=1910.393665281544 kvar=626.6091222123464 vminpu=0.85
new load.load_57_A bus1=bus_57.1 Phases=1 kv=157.6864406779661 kw=2135.646308279938 kvar=700.4919891158196 vminpu=0.85
new load.load_58_A bus1=bus_58.1 Phases=1 kv=157.6864406779661 kw=2274.861211076332 kvar=746.1544772330369 vminpu=0.85
new load.load_59_A bus1=bus_59.1 Phases=1 kv=157.6864406779661 kw=1793.6488257135618 kvar=588.3168148340483 vminpu=0.85
new load.load_60_A bus1=bus_60.1 Phases=1 kv=157.6864406779661 kw=1818.6116893463588 kvar=596.5046341056058 vminpu=0.85
new load.load_61_A bus1=bus_61.1 Phases=1 kv=157.6864406779661 kw=2444.7454574218827 kvar=801.8765100343776 vminpu=0.85
new load.load_62_B bus1=bus_62.2 Phases=1 kv=157.6864406779661 kw=701.291901179461 kvar=230.02374358686322 vminpu=0.85
new load.load_62_C bus1=bus_62.3 Phases=1 kv=157.6864406779661 kw=897.8669359037559 kvar=294.50035497643194 vminpu=0.85
new load.load_63_B bus1=bus_63.2 Phases=1 kv=157.6864406779661 kw=954.4711717792504 kvar=313.06654434359416 vminpu=0.85
new load.load_63_C bus1=bus_63.3 Phases=1 kv=157.6864406779661 kw=1272.4080083764056 kvar=417.34982674746107 vminpu=0.85
new load.load_64_B bus1=bus_64.2 Phases=1 kv=157.6864406779661 kw=775.1459065971438 kvar=254.24785736386318 vminpu=0.85
new load.load_64_C bus1=bus_64.3 Phases=1 kv=157.6864406779661 kw=1794.8987044584012 kvar=588.7267750623556 vminpu=0.85
new load.load_65_A bus1=bus_65.1 Phases=1 kv=157.6864406779661 kw=1577.4662720104934 kvar=517.4089372194419 vminpu=0.85
new load.load_66_A bus1=bus_66.1 Phases=1 kv=157.6864406779661 kw=1314.3964232981982 kvar=431.12202684180903 vminpu=0.85
new load.load_67_B bus1=bus_67.2 Phases=1 kv=157.6864406779661 kw=145.57565189198996 kvar=47.74881382057271 vminpu=0.85
new load.load_67_C bus1=bus_67.3 Phases=1 kv=157.6864406779661 kw=1129.2386009989516 kvar=370.3902611276561 vminpu=0.85
new load.load_69_A bus1=bus_69.1 Phases=1 kv=157.6864406779661 kw=1234.7413926280194 kvar=404.9951767819904 vminpu=0.85
new load.load_69_C bus1=bus_69.3 Phases=1 kv=157.6864406779661 kw=609.0084327508858 kvar=199.75476594229056 vminpu=0.85
new load.load_70_A bus1=bus_70.1 Phases=1 kv=157.6864406779661 kw=1409.0089143681475 kvar=462.1549239127524 vminpu=0.85
new load.load_70_C bus1=bus_70.3 Phases=1 kv=157.6864406779661 kw=411.4464554016156 kvar=134.9544373717299 vminpu=0.85
new load.load_71_C bus1=bus_71.3 Phases=1 kv=157.6864406779661 kw=2521.0064346410604 kvar=826.8901105622679 vminpu=0.85
new load.load_72_C bus1=bus_72.3 Phases=1 kv=157.6864406779661 kw=2430.551735600029 kvar=797.2209692768096 vminpu=0.85
new load.load_73_A bus1=bus_73.1 Phases=1 kv=157.6864406779661 kw=491.788702422264 kvar=161.3066943945026 vminpu=0.85
new load.load_73_C bus1=bus_73.3 Phases=1 kv=157.6864406779661 kw=1672.280137536417 kvar=548.5078851119448 vminpu=0.85
new load.load_74_A bus1=bus_74.1 Phases=1 kv=157.6864406779661 kw=1932.1065684960183 kvar=633.730954466694 vminpu=0.85
new load.load_75_B bus1=bus_75.2 Phases=1 kv=157.6864406779661 kw=1715.139762665219 kvar=562.5658421541918 vminpu=0.85
new load.load_76_B bus1=bus_76.2 Phases=1 kv=157.6864406779661 kw=1983.6817447074704 kvar=650.6476122640503 vminpu=0.85
new load.load_77_B bus1=bus_77.2 Phases=1 kv=157.6864406779661 kw=1988.2729185326775 kvar=652.1535172787183 vminpu=0.85
new load.load_78_B bus1=bus_78.2 Phases=1 kv=157.6864406779661 kw=1884.139310743848 kvar=617.9976939239822 vminpu=0.85
new load.load_79_B bus1=bus_79.2 Phases=1 kv=157.6864406779661 kw=2481.810752122105 kvar=814.0339266960505 vminpu=0.85
new load.load_80_B bus1=bus_80.2 Phases=1 kv=157.6864406779661 kw=138.02320123207582 kvar=45.27161000412087 vminpu=0.85
new load.load_80_C bus1=bus_80.3 Phases=1 kv=157.6864406779661 kw=1561.296262864351 kvar=512.1051742195071 vminpu=0.85
new load.load_81_B bus1=bus_81.2 Phases=1 kv=157.6864406779661 kw=2157.588839924004 kvar=707.6891394950733 vminpu=0.85
new load.load_82_B bus1=bus_82.2 Phases=1 kv=157.6864406779661 kw=1842.2015042098544 kvar=604.2420933808323 vminpu=0.85
new load.load_83_B bus1=bus_83.2 Phases=1 kv=157.6864406779661 kw=1143.1202472621512 kvar=374.9434411019856 vminpu=0.85
new load.load_84_B bus1=bus_84.2 Phases=1 kv=157.6864406779661 kw=1774.705979632693 kvar=582.1035613195234 vminpu=0.85
new load.load_85_B bus1=bus_85.2 Phases=1 kv=157.6864406779661 kw=2558.264654648738 kvar=839.1108067247861 vminpu=0.85
new load.load_86_B bus1=bus_86.2 Phases=1 kv=157.6864406779661 kw=1143.337859594287 kvar=375.01481794692614 vminpu=0.85
new load.load_87_B bus1=bus_87.2 Phases=1 kv=157.6864406779661 kw=2472.756711831803 kvar=811.0642014808313 vminpu=0.85
new load.load_88_B bus1=bus_88.2 Phases=1 kv=157.6864406779661 kw=1640.9095865752606 kvar=538.2183443966856 vminpu=0.85
new load.load_89_B bus1=bus_89.2 Phases=1 kv=157.6864406779661 kw=2016.566005150513 kvar=661.4336496893683 vminpu=0.85
new load.load_90_B bus1=bus_90.2 Phases=1 kv=157.6864406779661 kw=2092.1417289671144 kvar=686.2224871012136 vminpu=0.85
new load.load_91_B bus1=bus_91.2 Phases=1 kv=157.6864406779661 kw=2229.589411681664 kvar=731.3053270315858 vminpu=0.85
new load.load_92_B bus1=bus_92.2 Phases=1 kv=157.6864406779661 kw=2132.7337290186897 kvar=699.5366631181303 vminpu=0.85
new load.load_93_B bus1=bus_93.2 Phases=1 kv=157.6864406779661 kw=2327.703284161135 kvar=763.4866772048523 vminpu=0.85
new load.load_94_B bus1=bus_94.2 Phases=1 kv=157.6864406779661 kw=2139.2716569336835 kvar=701.6811034742482 vminpu=0.85
new load.load_95_B bus1=bus_95.2 Phases=1 kv=157.6864406779661 kw=2410.3684768289886 kvar=790.6008603999082 vminpu=0.85
new load.load_96_B bus1=bus_96.2 Phases=1 kv=157.6864406779661 kw=2079.5403135688093 kvar=682.0892228505695 vminpu=0.85
new load.load_97_B bus1=bus_97.2 Phases=1 kv=157.6864406779661 kw=2272.089407203693 kvar=745.2453255628113 vminpu=0.85
new load.load_98_B bus1=bus_98.2 Phases=1 kv=157.6864406779661 kw=2205.238046192152 kvar=723.3180791510259 vminpu=0.85
new load.load_99_B bus1=bus_99.2 Phases=1 kv=157.6864406779661 kw=2733.2343176450863 kvar=896.5008561875884 vminpu=0.85
new load.load_100_B bus1=bus_100.2 Phases=1 kv=157.6864406779661 kw=1554.7205672873058 kvar=509.9483460702363 vminpu=0.85
new load.load_101_B bus1=bus_101.2 Phases=1 kv=157.6864406779661 kw=2430.879768230146 kvar=797.328563979488 vminpu=0.85
new load.load_102_B bus1=bus_102.2 Phases=1 kv=157.6864406779661 kw=1684.8744735085936 kvar=552.6388273108188 vminpu=0.85
new load.load_103_B bus1=bus_103.2 Phases=1 kv=157.6864406779661 kw=2411.392074106193 kvar=790.9366003068313 vminpu=0.85
new load.load_104_B bus1=bus_104.2 Phases=1 kv=157.6864406779661 kw=2076.0868926133244 kvar=680.9565007771704 vminpu=0.85
new load.load_105_B bus1=bus_105.2 Phases=1 kv=157.6864406779661 kw=1695.391118934225 kvar=556.0882870104258 vminpu=0.85
new load.load_106_B bus1=bus_106.2 Phases=1 kv=157.6864406779661 kw=2604.0706985556963 kvar=854.1351891262684 vminpu=0.85
new load.load_107_B bus1=bus_107.2 Phases=1 kv=157.6864406779661 kw=2104.111271800409 kvar=690.1484971505342 vminpu=0.85
new load.load_108_B bus1=bus_108.2 Phases=1 kv=157.6864406779661 kw=2581.2347041478383 kvar=846.644982960491 vminpu=0.85
new load.load_109_B bus1=bus_109.2 Phases=1 kv=157.6864406779661 kw=2461.781786011288 kvar=807.4644258117025 vminpu=0.85
new load.load_110_B bus1=bus_110.2 Phases=1 kv=157.6864406779661 kw=2351.6569927352275 kvar=771.3434936171546 vminpu=0.85
new load.load_111_B bus1=bus_111.2 Phases=1 kv=157.6864406779661 kw=1828.2066167101516 kvar=599.6517702809298 vminpu=0.85
new load.load_112_C bus1=bus_112.3 Phases=1 kv=157.6864406779661 kw=1917.2061943083536 kvar=628.84363173314 vminpu=0.85
new load.load_113_C bus1=bus_113.3 Phases=1 kv=157.6864406779661 kw=1833.7188921031104 kvar=601.4597966098203 vminpu=0.85
new load.load_114_C bus1=bus_114.3 Phases=1 kv=157.6864406779661 kw=2034.0541385367403 kvar=667.1697574400508 vminpu=0.85
new load.load_115_B bus1=bus_115.2 Phases=1 kv=157.6864406779661 kw=760.207675964083 kvar=249.34811771621924 vminpu=0.85
new load.load_115_C bus1=bus_115.3 Phases=1 kv=157.6864406779661 kw=716.0617611401066 kvar=234.86825765395497 vminpu=0.85
new load.load_116_C bus1=bus_116.3 Phases=1 kv=157.6864406779661 kw=2263.6057864713885 kvar=742.4626979626155 vminpu=0.85
new load.load_117_A bus1=bus_117.1 Phases=1 kv=157.6864406779661 kw=2144.178465609437 kvar=703.2905367198954 vminpu=0.85

!---------------- SOLUTION ----------------

set controlmode=off
Set Voltagebases=[157.6864406779661]
calcv
Solve